units(length='cm', time='s', quantity='mol', act_energy='kcal/mol')

ideal_gas(name='gas',
          elements="H C O N Ne Ar He Si S Cl",
          species="""Ar          He          Ne          N2
                     SiH4(1)     Si2H6(2)    SiH3(3)     Si2H5(4)
                     SiH2(5)     SiH3SiH(6)  H2(7)       H4Si2(9)
                     SiH(11)     SiH2Si(12)  Si2(27)     H4Si3(29)""",
          reactions='all',
          transport='Mix',
          initial_state=state(temperature=300.0, pressure=OneAtm))

#-------------------------------------------------------------------------------
# Species data
#-------------------------------------------------------------------------------

species(name=u'Ar',
        atoms='Ar:1',
        thermo=(NASA([200.00, 1000.00],
                     [ 2.50000000E+00,  0.00000000E+00,  0.00000000E+00,
                       0.00000000E+00,  0.00000000E+00, -7.45375000E+02,
                       4.37967000E+00]),
                NASA([1000.00, 6000.00],
                     [ 2.50000000E+00,  0.00000000E+00,  0.00000000E+00,
                       0.00000000E+00,  0.00000000E+00, -7.45375000E+02,
                       4.37967000E+00])),
        transport=gas_transport(geom='atom',
                                diam=3.33,
                                well_depth=136.501))

species(name=u'He',
        atoms='He:1',
        thermo=(NASA([200.00, 1000.00],
                     [ 2.50000000E+00,  0.00000000E+00,  0.00000000E+00,
                       0.00000000E+00,  0.00000000E+00, -7.45375000E+02,
                       9.28724000E-01]),
                NASA([1000.00, 6000.00],
                     [ 2.50000000E+00,  0.00000000E+00,  0.00000000E+00,
                       0.00000000E+00,  0.00000000E+00, -7.45375000E+02,
                       9.28724000E-01])),
        transport=gas_transport(geom='atom',
                                diam=3.758,
                                well_depth=148.6))

species(name=u'Ne',
        atoms='Ne:1',
        thermo=(NASA([200.00, 1000.00],
                     [ 2.50000000E+00,  0.00000000E+00,  0.00000000E+00,
                       0.00000000E+00,  0.00000000E+00, -7.45375000E+02,
                       3.35532000E+00]),
                NASA([1000.00, 6000.00],
                     [ 2.50000000E+00,  0.00000000E+00,  0.00000000E+00,
                       0.00000000E+00,  0.00000000E+00, -7.45375000E+02,
                       3.35532000E+00])),
        transport=gas_transport(geom='atom',
                                diam=3.758,
                                well_depth=148.6))

species(name=u'N2',
        atoms='N:2',
        thermo=(NASA([200.00, 1000.00],
                     [ 3.53101000E+00, -1.23661000E-04, -5.02999000E-07,
                       2.43531000E-09, -1.40881000E-12, -1.04698000E+03,
                       2.96747000E+00]),
                NASA([1000.00, 6000.00],
                     [ 2.95258000E+00,  1.39690000E-03, -4.92632000E-07,
                       7.86010000E-11, -4.60755000E-15, -9.23949000E+02,
                       5.87189000E+00])),
        transport=gas_transport(geom='linear',
                                diam=3.621,
                                well_depth=97.53,
                                polar=1.76,
                                rot_relax=4.0))

species(name=u'SiH4(1)',
        atoms='H:4 Si:1',
        thermo=(NASA([100.00, 995.08],
                     [ 3.89844841E+00, -2.73682731E-03,  3.35034497E-05,
                      -3.74634722E-08,  1.28902858E-11,  1.53598054E+03,
                       2.01298307E+00]),
                NASA([995.08, 5000.00],
                     [ 4.37015193E+00,  8.59245331E-03, -3.51088725E-06,
                       6.91517056E-10, -5.13523544E-14,  7.87329315E+02,
                      -3.55046178E+00])),
        transport=gas_transport(geom='nonlinear',
                                diam=3.758,
                                well_depth=148.6))

species(name=u'Si2H6(2)',
        atoms='H:6 Si:2',
        thermo=(NASA([100.00, 1063.48],
                     [ 2.54160967E+00,  2.68125043E-02, -9.69005602E-06,
                      -5.60780247E-09,  3.66472121E-12,  6.18530268E+03,
                       1.09261901E+01]),
                NASA([1063.48, 5000.00],
                     [ 8.88266374E+00,  1.34224148E-02, -5.55734524E-06,
                       1.05004122E-09, -7.44923795E-14,  4.24506811E+03,
                      -2.28370396E+01])),
        transport=gas_transport(geom='nonlinear',
                                diam=4.443,
                                well_depth=110.7))

species(name=u'SiH3(3)',
        atoms='H:3 Si:1',
        thermo=(NASA([100.00, 1000.99],
                     [ 3.91655204E+00, -1.00475599E-03,  1.92800535E-05,
                      -2.15455854E-08,  7.35513738E-12,  2.18411596E+04,
                       3.38324819E+00]),
                NASA([1000.99, 5000.00],
                     [ 4.09637115E+00,  5.86730569E-03, -2.39262850E-06,
                       4.64339172E-10, -3.39859628E-14,  2.14248805E+04,
                       6.16020392E-01])),
        transport=gas_transport(geom='nonlinear',
                                diam=3.758,
                                well_depth=148.6))

species(name=u'Si2H5(4)',
        atoms='H:5 Si:2',
        thermo=(NASA([100.00, 1456.77],
                     [ 2.58316279E+00,  2.77325396E-02, -2.24479671E-05,
                       9.20907470E-09, -1.50792403E-12,  2.50090303E+04,
                       1.23684859E+01]),
                NASA([1456.77, 5000.00],
                     [ 9.15912317E+00,  9.67626501E-03, -3.85586984E-06,
                       7.00710022E-10, -4.77820858E-14,  2.30930978E+04,
                      -2.18307409E+01])),
        transport=gas_transport(geom='nonlinear',
                                diam=4.443,
                                well_depth=110.7))

species(name=u'SiH2(5)',
        atoms='H:2 Si:1',
        thermo=(NASA([100.00, 1086.09],
                     [ 4.05121062E+00, -1.89758380E-03,  1.06518788E-05,
                      -9.83341300E-09,  2.89963945E-12,  3.04409500E+04,
                       2.02992798E+00]),
                NASA([1086.09, 5000.00],
                     [ 3.20860372E+00,  4.17689913E-03, -1.84110831E-06,
                       3.53872497E-10, -2.50882362E-14,  3.04487368E+04,
                       5.35784965E+00])),
        transport=gas_transport(geom='nonlinear',
                                diam=3.758,
                                well_depth=148.6))

species(name=u'SiH3SiH(6)',
        atoms='H:4 Si:2',
        thermo=(NASA([100.00, 1208.20],
                     [ 2.96584749E+00,  2.31421777E-02, -2.03762877E-05,
                       9.47522051E-09, -1.83128150E-12,  3.46981882E+04,
                       1.22670882E+01]),
                NASA([1208.20, 5000.00],
                     [ 6.72586267E+00,  1.06939264E-02, -4.92166661E-06,
                       9.47639385E-10, -6.67694606E-14,  3.37896131E+04,
                      -6.58397031E+00])),
        transport=gas_transport(geom='nonlinear',
                                diam=4.443,
                                well_depth=110.7))

species(name=u'H2(7)',
        atoms='H:2',
        thermo=(NASA([100.00, 1959.08],
                     [ 3.43536428E+00,  2.12708915E-04, -2.78621781E-07,
                       3.40264607E-10, -7.76025661E-14, -1.03135985E+03,
                      -3.90841796E+00]),
                NASA([1959.08, 5000.00],
                     [ 2.78814852E+00,  5.87663436E-04,  1.58999886E-07,
                      -5.52717891E-11,  4.34295580E-15, -5.96134054E+02,
                       1.12835287E-01])),
        transport=gas_transport(geom='linear',
                                diam=2.92,
                                well_depth=38.0,
                                polar=0.79,
                                rot_relax=280.0))

species(name=u'H4Si2(9)',
        atoms='H:4 Si:2',
        thermo=(NASA([100.00, 1032.63],
                     [ 2.79401775E+00,  2.34376379E-02, -1.86129406E-05,
                       5.76208590E-09, -9.95632573E-14,  3.07653833E+04,
                       1.02119836E+01]),
                NASA([1032.63, 5000.00],
                     [ 8.37803861E+00,  7.14281767E-03, -2.69331225E-06,
                       4.87896794E-10, -3.40291896E-14,  2.93276688E+04,
                      -1.82843819E+01])),
        transport=gas_transport(geom='nonlinear',
                                diam=4.443,
                                well_depth=110.7))

species(name=u'SiH(11)',
        atoms='H:1 Si:1',
        thermo=(NASA([100.00, 878.73],
                     [ 3.51238795E+00,  8.44124079E-04, -3.14555747E-06,
                       5.52639733E-09, -2.63902621E-12,  4.42356542E+04,
                       3.65288139E+00]),
                NASA([878.73, 5000.00],
                     [ 2.39071656E+00,  2.89534049E-03, -1.43263482E-06,
                       2.70836856E-10, -1.83106619E-14,  4.45507178E+04,
                       9.59034307E+00])),
        transport=gas_transport(geom='linear',
                                diam=3.758,
                                well_depth=148.6))

species(name=u'SiH2Si(12)',
        atoms='H:2 Si:2',
        thermo=(NASA([100.00, 784.98],
                     [ 2.89004385E+00,  2.61636654E-02, -3.51890190E-05,
                       2.79883150E-08, -9.23236755E-12,  4.83370967E+04,
                       1.77335395E+01]),
                NASA([784.98, 5000.00],
                     [ 5.47727414E+00,  1.18459310E-02, -5.66252396E-06,
                       1.07163183E-09, -7.38009424E-14,  4.79658515E+04,
                       6.10056204E+00])),
        transport=gas_transport(geom='nonlinear',
                                diam=4.443,
                                well_depth=110.7))

species(name=u'Si2(27)',
        atoms='Si:2',
        thermo=(NASA([100.00, 872.99],
                     [ 2.24271314E+00,  3.22964007E-02, -5.71659838E-05,
                       5.37632131E-08, -1.91751694E-11,  6.48103540E+04,
                       2.96413040E+01]),
                NASA([872.99, 5000.00],
                     [ 3.86810255E+00,  1.40129421E-02, -7.13194751E-06,
                       1.33583444E-09, -8.96590755E-14,  6.49394756E+04,
                       2.43854460E+01])),
        transport=gas_transport(geom='linear',
                                diam=4.443,
                                well_depth=110.7))

species(name=u'H4Si3(29)',
        atoms='H:4 Si:3',
        thermo=(NASA([100.00, 819.63],
                     [ 1.62003426E+00,  5.67255617E-02, -8.63902133E-05,
                       7.23860346E-08, -2.41937162E-11,  5.15692671E+04,
                       2.54187873E+01]),
                NASA([819.63, 5000.00],
                     [ 7.84114741E+00,  2.07061671E-02, -1.01152417E-05,
                       1.92252091E-09, -1.31998592E-13,  5.07395430E+04,
                      -2.19756040E+00])),
        transport=gas_transport(geom='nonlinear',
                                diam=5.118,
                                well_depth=237.1))

#-------------------------------------------------------------------------------
# Reaction data
#-------------------------------------------------------------------------------

# Reaction 1
falloff_reaction('SiH3SiH(6) (+ M) => SiH2(5) + SiH2(5) (+ M)',
                 kf=[3.100000e+12, 0.14, 54.684],
                 kf0=[8.260000e+20, -1.65, 56.283],
                 falloff=Troe(A=-0.3811, T3=159.0, T1=-4030.0, T2=86.6))

# Reaction 2
reaction('SiH4(1) + Si2H5(4) <=> Si2H6(2) + SiH3(3)', [5.060000e+02, 3.66, 2.943])

# Reaction 3
chebyshev_reaction('SiH4(1) + SiH2(5) (+ M) <=> Si2H6(2) (+ M)',
                   Tmin=300.0, Tmax=2000.0,
                   Pmin=(0.01, 'atm'), Pmax=(19.738, 'atm'),
                   coeffs=[[ 1.25200e+01,  5.34700e-01, -8.33400e-02,  1.08800e-02],
                           [-6.24400e-02,  5.95200e-01, -5.46500e-03, -1.51200e-02],
                           [-4.84200e-01,  2.33200e-01,  2.71300e-02, -3.87300e-03],
                           [-2.47000e-01,  5.95400e-02,  1.42300e-02,  2.64300e-03],
                           [-9.75900e-02, -4.98000e-03,  6.45900e-03,  6.85700e-04],
                           [-3.48800e-02, -2.36400e-03, -3.04700e-03,  9.52700e-04]])

# Reaction 4
chebyshev_reaction('SiH3(3) + SiH3(3) (+ M) <=> SiH4(1) + SiH2(5) (+ M)',
                   Tmin=300.0, Tmax=2000.0,
                   Pmin=(0.01, 'atm'), Pmax=(19.738, 'atm'),
                   coeffs=[[ 1.31000e+01, -3.35500e-02, -2.07700e-02, -9.69300e-03],
                           [ 3.64900e-02,  3.16000e-02,  1.94500e-02,  8.97600e-03],
                           [ 1.89900e-03,  4.74300e-03,  3.01500e-03,  1.47600e-03],
                           [-2.31900e-03, -9.94400e-04, -6.01000e-04, -2.67200e-04],
                           [-2.76800e-03, -2.85700e-03, -1.73100e-03, -7.74200e-04],
                           [-1.62400e-04,  5.74000e-04,  3.15900e-04,  1.12900e-04]])

# Reaction 5
chebyshev_reaction('SiH3(3) + SiH3(3) (+ M) <=> Si2H6(2) (+ M)',
                   Tmin=300.0, Tmax=2000.0,
                   Pmin=(0.01, 'atm'), Pmax=(19.738, 'atm'),
                   coeffs=[[ 1.05800e+01,  1.61000e+00, -2.49000e-02, -1.15800e-02],
                           [-7.60500e-01,  3.06200e-02,  1.87700e-02,  8.58900e-03],
                           [-3.91600e-01,  7.78300e-03,  4.86000e-03,  2.30300e-03],
                           [-1.69600e-01,  1.17600e-03,  7.41100e-04,  3.57400e-04],
                           [-4.17200e-02, -2.60100e-03, -1.54600e-03, -6.65300e-04],
                           [-1.78200e-02,  3.86100e-04,  2.03500e-04,  6.40800e-05]])

# Reaction 6
chebyshev_reaction('SiH3(3) + SiH2(5) (+ M) <=> Si2H5(4) (+ M)',
                   Tmin=300.0, Tmax=2000.0,
                   Pmin=(0.01, 'atm'), Pmax=(19.738, 'atm'),
                   coeffs=[[ 8.78500e+00,  1.63900e+00, -7.07200e-03, -3.46000e-03],
                           [-4.64600e-01,  3.57900e-03,  2.28700e-03,  1.13000e-03],
                           [-2.88600e-01,  3.03800e-03,  1.92300e-03,  9.34600e-04],
                           [-1.15900e-01,  8.92900e-04,  5.63000e-04,  2.71600e-04],
                           [-2.88900e-02, -1.49500e-04, -9.36000e-05, -4.45800e-05],
                           [ 4.03200e-03, -3.76300e-04, -2.36000e-04, -1.12800e-04]])

# Reaction 7
reaction('SiH2(5) + SiH2(5) <=> H4Si2(9)', [2.500000e+14, 0.0, 0.0])

# Reaction 8
chebyshev_reaction('SiH2(5) + H2(7) (+ M) <=> SiH4(1) (+ M)',
                   Tmin=300.0, Tmax=2000.0,
                   Pmin=(0.01, 'atm'), Pmax=(19.738, 'atm'),
                   coeffs=[[ 1.16500e+01,  7.24500e-01, -1.96700e-01,  2.23400e-02],
                           [-9.34000e-01,  3.22900e-01,  4.11100e-02, -2.30600e-02],
                           [-2.96900e-01,  1.82500e-01,  2.17700e-02, -9.13600e-03],
                           [-9.51700e-02,  3.59700e-02,  1.85000e-02,  1.61400e-03],
                           [-5.10300e-02,  1.79700e-02,  4.19300e-03,  6.42500e-04],
                           [-1.97000e-02,  6.01300e-04,  1.36000e-03,  7.80500e-04]])

# Reaction 9
chebyshev_reaction('SiH3SiH(6) + H2(7) (+ M) <=> Si2H6(2) (+ M)',
                   Tmin=300.0, Tmax=2000.0,
                   Pmin=(0.01, 'atm'), Pmax=(19.738, 'atm'),
                   coeffs=[[ 1.17900e+01,  5.70400e-01, -9.50200e-02,  1.37300e-02],
                           [-1.19400e+00,  5.91200e-01,  3.01800e-03, -1.81200e-02],
                           [-5.38000e-01,  2.26600e-01,  2.95600e-02, -3.77800e-03],
                           [-2.41800e-01,  5.69700e-02,  1.38500e-02,  2.90100e-03],
                           [-8.90400e-02, -7.28000e-03,  6.76900e-03,  5.33000e-04],
                           [-3.18200e-02, -1.96600e-03, -3.39400e-03,  9.93300e-04]])

# Reaction 10
chebyshev_reaction('SiH3SiH(6) + H2(7) (+ M) <=> SiH4(1) + SiH2(5) (+ M)',
                   Tmin=300.0, Tmax=2000.0,
                   Pmin=(0.01, 'atm'), Pmax=(19.738, 'atm'),
                   coeffs=[[ 1.18200e+01, -7.08300e-01, -1.06600e-01,  4.14400e-03],
                           [ 6.25300e-01,  7.16300e-01,  6.48500e-02, -1.70700e-02],
                           [ 7.63100e-02,  7.10000e-02,  4.95300e-02,  7.64100e-03],
                           [-5.05400e-03, -4.98100e-02,  1.64400e-03,  5.39600e-03],
                           [-1.73800e-02, -3.39100e-02, -6.60700e-03,  1.04200e-04],
                           [ 1.97000e-02, -2.64500e-03, -5.65800e-03, -6.69200e-04]])

# Reaction 11
chebyshev_reaction('SiH3(3) + SiH3(3) (+ M) <=> SiH3SiH(6) + H2(7) (+ M)',
                   Tmin=300.0, Tmax=2000.0,
                   Pmin=(0.01, 'atm'), Pmax=(19.738, 'atm'),
                   coeffs=[[ 1.17400e+01, -3.34400e-02, -2.07100e-02, -9.66300e-03],
                           [ 4.30300e-01,  3.15800e-02,  1.94400e-02,  8.97400e-03],
                           [ 9.27500e-02,  4.67500e-03,  2.97400e-03,  1.45800e-03],
                           [ 2.49100e-02, -1.02600e-03, -6.20700e-04, -2.76500e-04],
                           [ 6.65600e-03, -2.85100e-03, -1.72800e-03, -7.73100e-04],
                           [ 2.17700e-03,  5.81500e-04,  3.20500e-04,  1.15000e-04]])

# Reaction 12
chebyshev_reaction('SiH3SiH(6) (+ M) <=> H4Si2(9) (+ M)',
                   Tmin=300.0, Tmax=2000.0,
                   Pmin=(0.01, 'atm'), Pmax=(19.738, 'atm'),
                   coeffs=[[ 7.26700e+00,  1.33800e+00, -1.39300e-01, -3.29700e-02],
                           [ 9.01500e-01, -1.27600e-01, -3.48200e-02,  4.69900e-03],
                           [-3.52000e-01, -3.10700e-02, -9.59900e-03, -1.74800e-04],
                           [-1.19000e-01, -3.46700e-02, -1.38900e-02, -5.15000e-04],
                           [-5.57200e-02, -2.43800e-02, -1.04600e-02,  6.38900e-05],
                           [-6.38600e-02,  3.57700e-03,  2.45600e-04,  5.40000e-04]])

# Reaction 13
falloff_reaction('SiH3SiH(6) (+ M) => H2(7) + SiH2Si(12) (+ M)',
                 kf=[2.530000e+18, -1.3, 41.338],
                 kf0=[1.110000e+24, -2.55, 42.141],
                 falloff=Troe(A=-1.097, T3=608.0, T1=672.0, T2=413.0))

# Reaction 14
chebyshev_reaction('SiH4(1) + SiH2Si(12) (+ M) <=> SiH2(5) + H4Si2(9) (+ M)',
                   Tmin=300.0, Tmax=2000.0,
                   Pmin=(0.01, 'atm'), Pmax=(19.738, 'atm'),
                   coeffs=[[-1.10800e+00, -8.36000e-10, -5.36800e-10, -2.67600e-10],
                           [ 6.47100e+00, -6.21200e-11, -3.99000e-11, -1.98900e-11],
                           [-2.34500e-01,  1.27300e-10,  8.17500e-11,  4.07500e-11],
                           [-1.00200e-01,  4.63600e-11,  2.97600e-11,  1.48300e-11],
                           [-4.02000e-02,  2.32000e-11,  1.49100e-11,  7.43100e-12],
                           [-1.53600e-02,  3.98800e-11,  2.55900e-11,  1.27600e-11]])

# Reaction 15
chebyshev_reaction('H2(7) + SiH2Si(12) (+ M) <=> H4Si2(9) (+ M)',
                   Tmin=300.0, Tmax=2000.0,
                   Pmin=(0.01, 'atm'), Pmax=(19.738, 'atm'),
                   coeffs=[[ 8.55500e+00,  1.17500e+00, -4.31700e-02, -5.42100e-04],
                           [-1.95300e+00,  4.43000e-01,  4.48000e-02,  1.62700e-03],
                           [-6.01800e-01,  1.38300e-02,  4.19900e-03, -5.45300e-04],
                           [-1.42000e-01,  2.69100e-03, -6.28600e-03, -1.48300e-03],
                           [-2.60000e-02, -1.39900e-02,  1.09900e-04, -1.26100e-03],
                           [-2.13500e-02, -1.05400e-03, -2.32400e-03,  1.53100e-04]])

# Reaction 16
chebyshev_reaction('H2(7) + SiH2Si(12) (+ M) <=> SiH3SiH(6) (+ M)',
                   Tmin=300.0, Tmax=2000.0,
                   Pmin=(0.01, 'atm'), Pmax=(19.738, 'atm'),
                   coeffs=[[ 8.71500e+00,  1.02500e+00, -1.17600e-01, -1.79700e-02],
                           [-1.66200e+00,  1.79900e-01, -6.42700e-02, -1.63700e-02],
                           [-6.24200e-01, -1.45200e-01, -5.18400e-02, -2.27900e-03],
                           [-2.67100e-01, -6.52300e-02, -2.18900e-02,  4.95400e-03],
                           [-1.22700e-01, -2.48400e-02,  4.99800e-03,  5.79400e-03],
                           [-6.35800e-02,  1.17600e-02,  8.18000e-03,  4.20200e-03]])

# Reaction 17
chebyshev_reaction('H2(7) + Si2(27) (+ M) <=> SiH2Si(12) (+ M)',
                   Tmin=300.0, Tmax=2000.0,
                   Pmin=(0.01, 'atm'), Pmax=(19.738, 'atm'),
                   coeffs=[[ 7.94900e+00,  1.48500e+00, -4.94800e-02, -2.56000e-03],
                           [-2.31800e+00,  2.21800e-01,  6.15400e-02,  3.74900e-04],
                           [-5.56100e-01, -4.00100e-02, -7.16200e-03,  2.14800e-03],
                           [-6.57300e-02, -2.82100e-02, -5.37100e-03,  1.83100e-03],
                           [-2.26800e-02,  4.42300e-03, -1.38600e-03, -1.17200e-03],
                           [-2.73900e-02,  1.78000e-02,  9.67800e-04, -2.31300e-03]])

# Reaction 18
chebyshev_reaction('SiH4(1) + SiH2Si(12) (+ M) => H2(7) + H4Si3(29) (+ M)',
                   Tmin=300.0, Tmax=2000.0,
                   Pmin=(0.01, 'atm'), Pmax=(19.738, 'atm'),
                   coeffs=[[ 1.07200e+01, -1.42400e-06, -9.14600e-07, -4.55900e-07],
                           [ 1.80100e+00,  1.93700e-06,  1.24400e-06,  6.20000e-07],
                           [ 3.01100e-01, -4.44200e-07, -2.85200e-07, -1.42200e-07],
                           [ 6.89500e-02, -1.23700e-07, -7.94300e-08, -3.95900e-08],
                           [ 1.73800e-02,  2.71400e-08,  1.74300e-08,  8.68800e-09],
                           [ 5.30000e-03,  3.46300e-08,  2.22400e-08,  1.10800e-08]])

# Reaction 19
chebyshev_reaction('SiH2(5) + SiH2Si(12) (+ M) <=> SiH4(1) + Si2(27) (+ M)',
                   Tmin=300.0, Tmax=2000.0,
                   Pmin=(0.01, 'atm'), Pmax=(19.738, 'atm'),
                   coeffs=[[ 1.16700e+01, -1.66000e-09, -1.06600e-09, -5.31400e-10],
                           [-4.64200e-10,  1.86300e-09,  1.19600e-09,  5.96300e-10],
                           [-1.33500e-09, -1.43600e-10, -9.22100e-11, -4.59600e-11],
                           [-9.34100e-10, -7.63900e-11, -4.90500e-11, -2.44500e-11],
                           [-5.84900e-10, -5.09100e-11, -3.26900e-11, -1.63000e-11],
                           [-3.03000e-10, -4.34000e-12, -2.78600e-12, -1.38900e-12]])

# Reaction 20
chebyshev_reaction('SiH2(5) + SiH2Si(12) (+ M) <=> H4Si3(29) (+ M)',
                   Tmin=300.0, Tmax=2000.0,
                   Pmin=(0.01, 'atm'), Pmax=(19.738, 'atm'),
                   coeffs=[[ 1.74000e+00,  1.65100e+00, -1.10600e-09, -5.51500e-10],
                           [-8.45200e-01,  1.90800e-09,  1.22500e-09,  6.10600e-10],
                           [-2.78400e-01, -1.26300e-10, -8.11300e-11, -4.04500e-11],
                           [-7.43100e-02, -7.55200e-11, -4.84900e-11, -2.41700e-11],
                           [ 5.53300e-03, -5.54600e-11, -3.56100e-11, -1.77500e-11],
                           [ 1.91600e-02, -6.69600e-12, -4.29900e-12, -2.13700e-12]])

# Reaction 21
chebyshev_reaction('SiH4(1) + Si2(27) (+ M) <=> H4Si3(29) (+ M)',
                   Tmin=300.0, Tmax=2000.0,
                   Pmin=(0.01, 'atm'), Pmax=(19.738, 'atm'),
                   coeffs=[[ 8.00900e+00,  1.65000e+00, -3.84100e-05, -1.91400e-05],
                           [-2.09900e+00,  6.44700e-05,  4.13900e-05,  2.06300e-05],
                           [-6.71700e-01, -1.11200e-05, -7.13700e-06, -3.55600e-06],
                           [-2.36400e-01,  2.08000e-05,  1.33500e-05,  6.65200e-06],
                           [-2.00900e-02, -1.25200e-05, -8.03700e-06, -4.00400e-06],
                           [ 2.52500e-02, -1.10600e-05, -7.09900e-06, -3.53700e-06]])

# Reaction 22
falloff_reaction('SiH3SiH(6) (+ M) => SiH3(3) + SiH(11) (+ M)',
                 kf=[5.850000e+19, -1.79, 64.94],
                 kf0=[3.460000e+23, -2.57, 65.262],
                 falloff=Troe(A=2.232, T3=3280.0, T1=5560.0, T2=8040.0))

# Reaction 23
falloff_reaction('SiH3(3) + SiH(11) (+ M) => H4Si2(9) (+ M)',
                 kf=[2.770000e+09, 0.849, -0.303],
                 kf0=[2.460000e+14, 0.03, 0.173],
                 falloff=Troe(A=-0.5098, T3=48.3, T1=-17400.0, T2=20.6))

# Reaction 24
reaction('SiH3(3) + SiH2(5) <=> SiH4(1) + SiH(11)', [7.792000e+02, 3.62, -0.129])

# Reaction 25
reaction('Si2H5(4) + SiH2(5) <=> Si2H6(2) + SiH(11)', [7.792000e+02, 3.62, -0.129])

# Reaction 26
chebyshev_reaction('SiH3(3) + Si2(27) (+ M) <=> SiH(11) + SiH2Si(12) (+ M)',
                   Tmin=300.0, Tmax=2000.0,
                   Pmin=(0.01, 'atm'), Pmax=(19.738, 'atm'),
                   coeffs=[[ 4.46800e+00, -8.97600e-09, -5.71400e-09, -2.80600e-09],
                           [ 3.15400e+00,  4.56600e-09,  2.91200e-09,  1.43400e-09],
                           [-2.16600e-01,  8.04300e-10,  5.20900e-10,  2.63500e-10],
                           [-8.75600e-02,  1.52800e-09,  9.69100e-10,  4.72700e-10],
                           [-3.37400e-02,  1.00800e-09,  6.35800e-10,  3.07100e-10],
                           [-1.25100e-02,  5.00500e-10,  3.13300e-10,  1.49100e-10]])

# Reaction 27
chebyshev_reaction('SiH4(1) + SiH(11) (+ M) <=> Si2H5(4) (+ M)',
                   Tmin=300.0, Tmax=2000.0,
                   Pmin=(0.01, 'atm'), Pmax=(19.738, 'atm'),
                   coeffs=[[ 1.38200e+01,  8.53000e-01, -1.30200e-01,  2.21900e-03],
                           [-1.12600e+00,  5.49700e-01,  4.49400e-02, -1.55300e-02],
                           [-5.03300e-01,  1.15100e-01,  3.82600e-02,  3.28100e-03],
                           [-2.04300e-01,  1.68300e-02,  8.75800e-03,  2.78600e-03],
                           [-6.48800e-02, -5.50300e-03,  7.03900e-04,  3.97800e-04],
                           [-1.06000e-02, -5.86100e-03, -1.60000e-03,  2.40300e-04]])

# Reaction 28
chebyshev_reaction('H2(7) + SiH(11) (+ M) <=> SiH3(3) (+ M)',
                   Tmin=300.0, Tmax=2000.0,
                   Pmin=(0.01, 'atm'), Pmax=(19.738, 'atm'),
                   coeffs=[[ 1.08800e+01,  7.76700e-01, -1.07600e-01,  1.57200e-04],
                           [-2.74900e-01,  5.72300e-01,  2.43500e-02, -1.31400e-02],
                           [-2.38100e-01,  9.96200e-02,  3.16800e-02,  3.10900e-03],
                           [-9.85600e-02,  6.48000e-03,  6.15500e-03,  2.57300e-03],
                           [-3.68500e-02, -2.37600e-03,  7.87300e-05,  2.54600e-04],
                           [-1.38800e-02, -7.30500e-04, -3.67000e-04, -6.94700e-05]])

# Reaction 29
chebyshev_reaction('SiH3(3) + SiH2(5) (+ M) <=> SiH4(1) + SiH(11) (+ M)',
                   Tmin=300.0, Tmax=2000.0,
                   Pmin=(0.01, 'atm'), Pmax=(19.738, 'atm'),
                   coeffs=[[ 1.17300e+01, -8.09700e-03, -5.15400e-03, -2.52900e-03],
                           [-7.58300e-02,  5.31300e-03,  3.38400e-03,  1.66200e-03],
                           [-3.00300e-02,  2.51400e-03,  1.59400e-03,  7.76700e-04],
                           [-1.25500e-02,  1.52200e-04,  9.59800e-05,  4.63500e-05],
                           [-5.26400e-03, -4.08400e-04, -2.57900e-04, -1.24700e-04],
                           [-2.15300e-03, -2.98300e-04, -1.88300e-04, -9.10000e-05]])

# Reaction 30
chebyshev_reaction('Si2H6(2) + SiH(11) (+ M) <=> SiH3(3) + SiH3SiH(6) (+ M)',
                   Tmin=300.0, Tmax=2000.0,
                   Pmin=(0.01, 'atm'), Pmax=(19.738, 'atm'),
                   coeffs=[[ 7.01700e+00, -1.73300e-02, -1.08500e-02, -5.17200e-03],
                           [ 3.77400e+00,  2.06500e-02,  1.28800e-02,  6.09400e-03],
                           [-4.20800e-02, -2.22100e-03, -1.32600e-03, -5.75300e-04],
                           [-1.81200e-02, -1.24200e-03, -7.91900e-04, -3.89800e-04],
                           [-8.03800e-03, -4.96900e-04, -3.14600e-04, -1.52900e-04],
                           [-3.05900e-03,  9.28400e-05,  5.42500e-05,  2.24700e-05]])

# Reaction 31
chebyshev_reaction('Si2H6(2) + SiH(11) (+ M) <=> Si2H5(4) + SiH2(5) (+ M)',
                   Tmin=300.0, Tmax=2000.0,
                   Pmin=(0.01, 'atm'), Pmax=(19.738, 'atm'),
                   coeffs=[[ 1.07800e+01, -3.12000e-02, -1.90800e-02, -8.70300e-03],
                           [ 3.14600e+00,  3.77200e-02,  2.29100e-02,  1.03100e-02],
                           [-3.77200e-02, -4.30800e-03, -2.42300e-03, -9.19800e-04],
                           [-1.80200e-02, -2.39500e-03, -1.51200e-03, -7.30500e-04],
                           [-7.80700e-03, -7.91200e-04, -4.97800e-04, -2.39600e-04],
                           [-2.70400e-03,  2.07000e-04,  1.15300e-04,  4.26800e-05]])
